    1000.00    307.40    18.17
     345.00    307.40    19.99     0.00     0.00
     383.00    306.60    19.82     0.00     0.00
     610.00    306.40    18.69     0.00     0.00
     619.00    306.40    18.64     0.00     0.00
     773.00    307.30    17.14     0.00     0.00
     914.00    308.30    16.17     0.00     0.00
     967.00    308.60    15.82     0.00     0.00
    1219.00    308.70    14.85     0.00     0.00
    1497.00    308.80    13.84     0.00     0.00
    1517.00    308.80    13.68     0.00     0.00
    1829.00    308.80    13.67     0.00     0.00
    2114.00    308.80    13.65     0.00     0.00
    2134.00    308.80    13.53     0.00     0.00
    2408.00    309.20    11.88     0.00     0.00
    2438.00    309.30    11.74     0.00     0.00
    2642.00    309.90    10.81     0.00     0.00
    2721.00    311.20     9.91     0.00     0.00
    2743.00    311.30     9.81     0.00     0.00
    3162.00    312.40     8.06     0.00     0.00
    3353.00    312.80     7.41     0.00     0.00
    3389.00    312.90     7.29     0.00     0.00
    3658.00    313.90     6.22     0.00     0.00
    3936.00    315.00     5.25     0.00     0.00
    4168.00    316.50     3.69     0.00     0.00
    4267.00    316.70     3.55     0.00     0.00
    4572.00    317.20     3.20     0.00     0.00
    4622.00    317.30     3.15     0.00     0.00
    4877.00    317.60     3.74     0.00     0.00
    4940.00    317.70     3.89     0.00     0.00
    5182.00    317.90     3.23     0.00     0.00
    5327.00    318.10     2.88     0.00     0.00
    5385.00    318.30     2.19     0.00     0.00
    5667.00    318.70     2.20     0.00     0.00
    5804.00    319.60     2.12     0.00     0.00
    5835.00    319.80     2.74     0.00     0.00
    5850.00    319.90     2.71     0.00     0.00
    6096.00    321.00     2.45     0.00     0.00
    6148.00    321.30     2.40     0.00     0.00
    6390.00    322.70     2.14     0.00     0.00
    6489.00    323.60     2.10     0.00     0.00
    6706.00    324.70     1.87     0.00     0.00
    6724.00    324.80     1.85     0.00     0.00
    7212.00    326.20     1.33     0.00     0.00
    7540.00    329.30     1.23     0.00     0.00
    7620.00    330.10     1.21     0.00     0.00
    7652.00    330.50     1.20     0.00     0.00
    8035.00    331.70     0.92     0.00     0.00
    8839.00    331.90     0.43     0.00     0.00
    8891.00    332.00     0.41     0.00     0.00
    9144.00    333.00     0.34     0.00     0.00
    9600.00    334.90     0.24     0.00     0.00
    9979.00    336.20     0.18     0.00     0.00
   10052.00    337.80     0.18     0.00     0.00
   10351.00    339.40     0.14     0.00     0.00
   10557.00    342.40     0.17     0.00     0.00
   10668.00    342.50     0.14     0.00     0.00
   10850.00    342.70     0.12     0.00     0.00
   10986.00    343.20     0.09     0.00     0.00
   11097.00    345.40     0.09     0.00     0.00
   11737.00    350.70     0.04     0.00     0.00
   11887.00    353.50     0.04     0.00     0.00
   11922.00    354.10     0.06     0.00     0.00
   12080.00    355.30     0.04     0.00     0.00
   12340.00    357.10     0.04     0.00     0.00
   12497.00    358.00     0.03     0.00     0.00
   12644.00    358.90     0.03     0.00     0.00
   13706.00    362.40     0.02     0.00     0.00
   14190.00    366.30     0.02     0.00     0.00
   14326.00    367.90     0.02     0.00     0.00
   14619.00    371.20     0.02     0.00     0.00
   14630.00    371.20     0.02     0.00     0.00
   15240.00    372.40     0.01     0.00     0.00
   15358.00    372.60     0.01     0.00     0.00
   16075.00    382.20     0.01     0.00     0.00
   16154.00    383.40     0.01     0.00     0.00
   16640.00    390.50     0.01     0.00     0.00
   16939.00    397.70     0.01     0.00     0.00
   17374.00    401.40     0.01     0.00     0.00
   17519.00    402.60     0.01     0.00     0.00
   17678.00    405.70     0.01     0.00     0.00
   17913.00    410.40     0.01     0.00     0.00
   17983.00    412.80     0.01     0.00     0.00
   18151.00    418.50     0.01     0.00     0.00
   18228.00    424.60     0.01     0.00     0.00
   18288.00    425.20     0.01     0.00     0.00
   18467.00    427.00     0.01     0.00     0.00
   18565.00    433.20     0.01     0.00     0.00
   18750.00    434.50     0.01     0.00     0.00
   18810.00    434.90     0.01     0.00     0.00
   18898.00    437.00     0.01     0.00     0.00
   19202.00    444.20     0.01     0.00     0.00
   19311.00    446.80     0.01     0.00     0.00
   19507.00    459.20     0.02     0.00     0.00
   19543.00    461.50     0.02     0.00     0.00
   19812.00    467.20     0.02     0.00     0.00
   20117.00    473.70     0.02     0.00     0.00
   20159.00    474.60     0.02     0.00     0.00
   20422.00    485.10     0.03     0.00     0.00
   20726.00    497.40     0.04     0.00     0.00
   20790.00    500.00     0.04     0.00     0.00
   20890.00    504.20     0.06     0.00     0.00
   21031.00    507.70     0.06     0.00     0.00
   21336.00    515.20     0.06     0.00     0.00
   21641.00    523.00     0.06     0.00     0.00
   21946.00    530.80     0.07     0.00     0.00
   22250.00    538.70     0.07     0.00     0.00
   22555.00    546.70     0.07     0.00     0.00
   22777.00    552.60     0.08     0.00     0.00
   22860.00    556.00     0.08     0.00     0.00
   23470.00    580.80     0.11     0.00     0.00
   23778.00    593.70     0.12     0.00     0.00
   23774.00    593.50     0.12     0.00     0.00
   24010.00    599.30     0.11     0.00     0.00
   24384.00    609.60     0.11     0.00     0.00
   24689.00    618.20     0.11     0.00     0.00
   25419.00    639.10     0.11     0.00     0.00
   26157.00    665.70     0.10     0.00     0.00
   26213.00    669.30     0.10     0.00     0.00
   26310.00    675.60     0.10     0.00     0.00
   26518.00    683.00     0.09     0.00     0.00
   26630.00    687.00     0.09     0.00     0.00
   27432.00    716.00     0.07     0.00     0.00
   27588.00    721.80     0.07     0.00     0.00
   27903.00    738.70     0.08     0.00     0.00
   28364.00    750.80     0.04     0.00     0.00
